# Test cases for text_indentation function
# ========================================

# Import the module
>>> text_indentation = __import__('5-text_indentation').text_indentation

# Printing text with '?' ending
>>> text_indentation("Hello?")
Hello?
<BLANKLINE>

# Printing text with '.' ending and leading spaces
>>> text_indentation("   Hi there.")
Hi there.
<BLANKLINE>

# Printing text with no characters
>>> text_indentation("          ")

# Printing text with '.' ending and trailing spaces
>>> text_indentation("Hello.   ")
Hello.
<BLANKLINE>

# Printing text with '.' and '?' endings, with leading and trailing spaces
>>> text_indentation("    Woah now.    This is messy.   ")
Woah now.
<BLANKLINE>
This is messy.
<BLANKLINE>

# Printing text with no ending punctuation
>>> text_indentation("No ending period, what bad grammar")
No ending period, what bad grammar

# Printing text with new lines and '.' endings
>>> text_indentation("Let's print a new-line! Here goes:\nPrinted.")
Let's print a new-line! Here goes:
<BLANKLINE>
<BLANKLINE>
Printed.
<BLANKLINE>

# Printing text with leading new lines
>>> text_indentation("\n\n\n We just printed three new lines.")
<BLANKLINE>
<BLANKLINE>
<BLANKLINE>
We just printed three new lines.
<BLANKLINE>

# Printing text with new lines in the middle
>>> text_indentation("A sneaky \n new line.")
A sneaky 
new line.
<BLANKLINE>

# Printing a combo example
>>> text_indentation("Lorem ipsum dolor sit amet, consectetur adipiscing elit. Quonam modo? Utrum igitur tibi litteram videor an totas paginas commovere? Non autem hoc: igitur ne illud quidem. Fortasse id optimum, sed ubi illud: Plus semper voluptatis? Teneo, inquit, finem illi videri nihil dolere. Transfer idem ad modestiam vel temperantiam, quae est moderatio cupiditatum rationi oboediens. Si id dicis, vicimus. Inde sermone vario sex illa a Dipylo stadia confecimus. Sin aliud quid voles, postea. Quae animi affectio suum cuique tribuens atque hanc, quam dico. Utinam quidem dicerent alium alio beatiorem! Iam ruinas videres") # doctest: +NORMALIZE_WHITESPACE
Lorem ipsum dolor sit amet, consectetur adipiscing elit.
<BLANKLINE>
Quonam modo?
<BLANKLINE>
Utrum igitur tibi litteram videor an totas paginas commovere?
<BLANKLINE>
Non autem hoc:
<BLANKLINE>
igitur ne illud quidem.
<BLANKLINE>
Fortasse id optimum, sed ubi illud:
<BLANKLINE>
Plus semper voluptatis?
<BLANKLINE>
Teneo, inquit, finem illi videri nihil dolere.
<BLANKLINE>
Transfer idem ad modestiam vel temperantiam, 
quae est moderatio cupiditatum rationi oboediens.
<BLANKLINE>
Si id dicis, vicimus.
<BLANKLINE>
Inde sermone vario sex illa a Dipylo stadia confecimus.
<BLANKLINE>
Sin aliud quid voles, postea.
<BLANKLINE>
Quae animi affectio suum cuique tribuens atque hanc, quam dico.
<BLANKLINE>
Utinam quidem dicerent alium alio beatiorem! Iam ruinas videres

# Error handling for non-string input
>>> text_indentation(7)
Traceback (most recent call last):
...
TypeError: text must be a string

# Error handling for non-string dictionary input
>>> text_indentation({"one": 1, "two": 2})
Traceback (most recent call last):
...
TypeError: text must be a string

# Error handling for None input
>>> text_indentation(None)
Traceback (most recent call last):
...
TypeError: text must be a string

